[Format]      =  4.0
[Frequency]   =  0
[Precision]   =  1e-008
[MinAngle]    =  30
[DoSmartMesh] =  1
[Depth]       =  140
[LengthUnits] =  millimeters
[ProblemType] =  planar
[Coordinates] =  cartesian
[ACSolver]    =  0
[PrevType]    =  0
[PrevSoln]    =  ""
[Comment]     =  "Add comments here."
[PointProps]   = 0
[BdryProps]   = 2
  <BeginBdry>
    <BdryName> = "A=0"
    <BdryType> = 0
    <A_0> = 0
    <A_1> = 0
    <A_2> = 0
    <Phi> = 0
    <c0> = 0
    <c0i> = 0
    <c1> = 0
    <c1i> = 0
    <Mu_ssd> = 0
    <Sigma_ssd> = 0
    <innerangle> = 0
    <outerangle> = 0
  <EndBdry>
  <BeginBdry>
    <BdryName> = "A=0"
    <BdryType> = 0
    <A_0> = 0
    <A_1> = 0
    <A_2> = 0
    <Phi> = 0
    <c0> = 0
    <c0i> = 0
    <c1> = 0
    <c1i> = 0
    <Mu_ssd> = 0
    <Sigma_ssd> = 0
    <innerangle> = 0
    <outerangle> = 0
  <EndBdry>
[BlockProps]  = 11
  <BeginBlock>
    <BlockName> = "Air"
    <Mu_x> = 1
    <Mu_y> = 1
    <H_c> = 0
    <H_cAngle> = 0
    <J_re> = 0
    <J_im> = 0
    <Sigma> = 0
    <d_lam> = 0
    <Phi_h> = 0
    <Phi_hx> = 0
    <Phi_hy> = 0
    <LamType> = 0
    <LamFill> = 1
    <NStrands> = 0
    <WireD> = 0
    <BHPoints> = 0
  <EndBlock>
  <BeginBlock>
    <BlockName> = "Aluminum, 1100"
    <Mu_x> = 1
    <Mu_y> = 1
    <H_c> = 0
    <H_cAngle> = 0
    <J_re> = 0
    <J_im> = 0
    <Sigma> = 34.450000000000003
    <d_lam> = 0
    <Phi_h> = 0
    <Phi_hx> = 0
    <Phi_hy> = 0
    <LamType> = 0
    <LamFill> = 1
    <NStrands> = 0
    <WireD> = 0
    <BHPoints> = 0
  <EndBlock>
  <BeginBlock>
    <BlockName> = "Copper"
    <Mu_x> = 1
    <Mu_y> = 1
    <H_c> = 0
    <H_cAngle> = 0
    <J_re> = 0
    <J_im> = 0
    <Sigma> = 58
    <d_lam> = 0
    <Phi_h> = 0
    <Phi_hx> = 0
    <Phi_hy> = 0
    <LamType> = 0
    <LamFill> = 1
    <NStrands> = 0
    <WireD> = 0
    <BHPoints> = 0
  <EndBlock>
  <BeginBlock>
    <BlockName> = "u1"
    <Mu_x> = 2.6498996896116669
    <Mu_y> = 2.6498996896116669
    <H_c> = 0
    <H_cAngle> = 0
    <J_re> = 0
    <J_im> = 0
    <Sigma> = 0
    <d_lam> = 0
    <Phi_h> = 0
    <Phi_hx> = 0
    <Phi_hy> = 0
    <LamType> = 0
    <LamFill> = 1
    <NStrands> = 0
    <WireD> = 0
    <BHPoints> = 0
  <EndBlock>
  <BeginBlock>
    <BlockName> = "u2"
    <Mu_x> = 0.12953316809300527
    <Mu_y> = 0.12953316809300527
    <H_c> = 0
    <H_cAngle> = 0
    <J_re> = 0
    <J_im> = 0
    <Sigma> = 0
    <d_lam> = 0
    <Phi_h> = 0
    <Phi_hx> = 0
    <Phi_hy> = 0
    <LamType> = 0
    <LamFill> = 1
    <NStrands> = 0
    <WireD> = 0
    <BHPoints> = 0
  <EndBlock>
  <BeginBlock>
    <BlockName> = "u3"
    <Mu_x> = 14.398967120915913
    <Mu_y> = 14.398967120915913
    <H_c> = 0
    <H_cAngle> = 0
    <J_re> = 0
    <J_im> = 0
    <Sigma> = 0
    <d_lam> = 0
    <Phi_h> = 0
    <Phi_hx> = 0
    <Phi_hy> = 0
    <LamType> = 0
    <LamFill> = 1
    <NStrands> = 0
    <WireD> = 0
    <BHPoints> = 0
  <EndBlock>
  <BeginBlock>
    <BlockName> = "u4"
    <Mu_x> = 0.042882574356338271
    <Mu_y> = 0.042882574356338271
    <H_c> = 0
    <H_cAngle> = 0
    <J_re> = 0
    <J_im> = 0
    <Sigma> = 0
    <d_lam> = 0
    <Phi_h> = 0
    <Phi_hx> = 0
    <Phi_hy> = 0
    <LamType> = 0
    <LamFill> = 1
    <NStrands> = 0
    <WireD> = 0
    <BHPoints> = 0
  <EndBlock>
  <BeginBlock>
    <BlockName> = "u5"
    <Mu_x> = 37.197476986533054
    <Mu_y> = 37.197476986533054
    <H_c> = 0
    <H_cAngle> = 0
    <J_re> = 0
    <J_im> = 0
    <Sigma> = 0
    <d_lam> = 0
    <Phi_h> = 0
    <Phi_hx> = 0
    <Phi_hy> = 0
    <LamType> = 0
    <LamFill> = 1
    <NStrands> = 0
    <WireD> = 0
    <BHPoints> = 0
  <EndBlock>
  <BeginBlock>
    <BlockName> = "u6"
    <Mu_x> = 0.015664246064106369
    <Mu_y> = 0.015664246064106369
    <H_c> = 0
    <H_cAngle> = 0
    <J_re> = 0
    <J_im> = 0
    <Sigma> = 0
    <d_lam> = 0
    <Phi_h> = 0
    <Phi_hx> = 0
    <Phi_hy> = 0
    <LamType> = 0
    <LamFill> = 1
    <NStrands> = 0
    <WireD> = 0
    <BHPoints> = 0
  <EndBlock>
  <BeginBlock>
    <BlockName> = "u7"
    <Mu_x> = 142.03015659052124
    <Mu_y> = 142.03015659052124
    <H_c> = 0
    <H_cAngle> = 0
    <J_re> = 0
    <J_im> = 0
    <Sigma> = 0
    <d_lam> = 0
    <Phi_h> = 0
    <Phi_hx> = 0
    <Phi_hy> = 0
    <LamType> = 0
    <LamFill> = 1
    <NStrands> = 0
    <WireD> = 0
    <BHPoints> = 0
  <EndBlock>
  <BeginBlock>
    <BlockName> = "M250"
    <Mu_x> = 1
    <Mu_y> = 1
    <H_c> = 0
    <H_cAngle> = 0
    <J_re> = 0
    <J_im> = 0
    <Sigma> = 0
    <d_lam> = 0
    <Phi_h> = 0
    <Phi_hx> = 0
    <Phi_hy> = 0
    <LamType> = 0
    <LamFill> = 1
    <NStrands> = 0
    <WireD> = 0
    <BHPoints> = 20
      0	0
      0.48470000000000002	526.32000000000005
      0.9244	1052.6300000000001
      1.2823	1578.95
      1.5212000000000001	2105.2600000000002
      1.6094999999999999	2631.5799999999999
      1.6400999999999999	3157.8899999999999
      1.6616	3684.21
      1.6778	4210.5299999999997
      1.6922999999999999	4736.8400000000001
      1.7081	5263.1599999999999
      1.7239	5789.4700000000003
      1.7392000000000001	6315.79
      1.7538	6842.1099999999997
      1.7676000000000001	7368.4200000000001
      1.7805	7894.7399999999998
      1.7923	8421.0499999999993
      1.8028999999999999	8947.3700000000008
      1.8122	9473.6800000000003
      1.8200000000000001	10000
  <EndBlock>
[CircuitProps]  = 3
  <BeginCircuit>
    <CircuitName> = "A"
    <TotalAmps_re> = 10.7844
    <TotalAmps_im> = 0
    <CircuitType> = 1
  <EndCircuit>
  <BeginCircuit>
    <CircuitName> = "B"
    <TotalAmps_re> = -5.3921999999999999
    <TotalAmps_im> = 0
    <CircuitType> = 1
  <EndCircuit>
  <BeginCircuit>
    <CircuitName> = "C"
    <TotalAmps_re> = -5.3921999999999999
    <TotalAmps_im> = 0
    <CircuitType> = 1
  <EndCircuit>
[NumPoints] = 1021
0	56.399999999999999	0	1
-3.09899999999999	53.79999999999999	0	1
-1.0155000000000041	34.399999999999999	0	1
1.015500000000001	34.399999999999999	0	1
3.0990000000000162	53.79999999999999	0	1
-14.99292784670118	51.761529301051489	0	1
-12.550180675136129	54.985934247054843	0	1
-8.6447594229178577	33.311550170622091	0	1
-6.6646808332765684	33.763490187487371	0	1
-8.9503246469982294	53.14071404971272	0	1
-26.13504768615423	47.127519385624822	0	1
-24.47104288623029	50.814644149696427	0	1
-15.840534510998911	30.552720118769329	0	1
-14.010666740289089	31.433937992917102	0	1
-20.550842642895031	49.816730800675458	0	1
-35.966647104168288	40.130338860819791	0	1
-35.164824824832579	44.095295611196867	0	1
-22.241999054386721	26.261849103112681	0	1
-20.654099313494161	27.528156890687772	0	1
-31.120855575831438	43.994728652740228	0	1
-43.9947286527402	31.120855575831438	0	1
-44.095295611196882	35.164824824832571	0	1
-27.528156890687779	20.654099313494129	0	1
-26.261849103112681	22.24199905438671	0	1
-40.130338860819769	35.966647104168302	0	1
-49.816730800675451	20.550842642895041	0	1
-50.814644149696427	24.47104288623029	0	1
-31.433937992917102	14.01066674028907	0	1
-30.55272011876934	15.84053451099888	0	1
-47.127519385624822	26.135047686154241	0	1
-53.14071404971272	8.9503246469982614	0	1
-54.98593424705485	12.55018067513614	0	1
-33.763490187487378	6.664680833276539	0	1
-33.311550170622098	8.6447594229178293	0	1
-51.761529301051482	14.99292784670121	0	1
-53.79999999999999	-3.0989999999999789	0	1
-56.399999999999999	1.5299999999999999e-014	0	1
-34.399999999999999	-1.0155000000000349	0	1
-34.399999999999999	1.0154999999999701	0	1
-53.79999999999999	3.0990000000000268	0	1
-51.761529301051503	-14.992927846701161	0	1
-54.985934247054857	-12.55018067513611	0	1
-33.311550170622077	-8.6447594229178932	0	1
-33.763490187487363	-6.6646808332766021	0	1
-53.14071404971272	-8.9503246469982152	0	1
-47.127519385624829	-26.135047686154209	0	1
-50.814644149696441	-24.471042886230268	0	1
-30.552720118769319	-15.84053451099893	0	1
-31.43393799291708	-14.010666740289111	0	1
-49.816730800675472	-20.55084264289501	0	1
-40.130338860819798	-35.966647104168267	0	1
-44.095295611196889	-35.164824824832557	0	1
-26.26184910311266	-22.241999054386749	0	1
-27.52815689068775	-20.654099313494171	0	1
-43.994728652740228	-31.12085557583141	0	1
-31.12085557583146	-43.994728652740193	0	1
-35.164824824832593	-44.095295611196853	0	1
-20.654099313494122	-27.528156890687789	0	1
-22.241999054386689	-26.261849103112699	0	1
-35.966647104168317	-40.130338860819762	0	1
-20.550842642895059	-49.816730800675437	0	1
-24.471042886230311	-50.81464414969642	0	1
-14.01066674028905	-31.433937992917119	0	1
-15.840534510998859	-30.552720118769351	0	1
-26.135047686154259	-47.127519385624808	0	1
-8.9503246469982862	-53.140714049712713	0	1
-12.55018067513617	-54.985934247054843	0	1
-6.6646808332765151	-33.763490187487392	0	1
-8.6447594229178044	-33.311550170622112	0	1
-14.99292784670123	-51.761529301051482	0	1
3.0989999999999509	-53.79999999999999	0	1
-5.1700000000000003e-014	-56.399999999999999	0	1
1.015500000000066	-34.399999999999999	0	1
-1.015499999999939	-34.399999999999999	0	1
-3.0990000000000562	-53.79999999999999	0	1
14.992927846701139	-51.761529301051503	0	1
12.55018067513608	-54.985934247054857	0	1
8.6447594229179234	-33.311550170622077	0	1
6.6646808332766341	-33.763490187487349	0	1
8.9503246469981885	-53.140714049712727	0	1
26.135047686154181	-47.127519385624858	0	1
24.471042886230229	-50.814644149696463	0	1
15.84053451099896	-30.552720118769312	0	1
14.010666740289141	-31.43393799291708	0	1
20.550842642894981	-49.816730800675479	0	1
35.966647104168253	-40.130338860819819	0	1
35.164824824832522	-44.095295611196917	0	1
22.24199905438677	-26.261849103112631	0	1
20.6540993134942	-27.528156890687729	0	1
31.120855575831389	-43.994728652740257	0	1
43.994728652740179	-31.120855575831492	0	1
44.095295611196839	-35.164824824832621	0	1
27.528156890687821	-20.654099313494079	0	1
26.26184910311272	-22.24199905438666	0	1
40.130338860819741	-35.966647104168352	0	1
49.81673080067543	-20.550842642895091	0	1
50.814644149696413	-24.47104288623034	0	1
31.43393799291713	-14.01066674028902	0	1
30.552720118769368	-15.84053451099884	0	1
47.127519385624801	-26.135047686154291	0	1
53.140714049712699	-8.9503246469983058	0	1
54.985934247054821	-12.5501806751362	0	1
33.763490187487378	-6.6646808332764929	0	1
33.311550170622112	-8.6447594229177831	0	1
51.761529301051461	-14.99292784670126	0	1
53.79999999999999	3.098999999999946	0	1
56.399999999999999	-6.1399999999999996e-014	0	1
34.399999999999999	1.015500000000092	0	1
34.399999999999999	-1.015499999999913	0	1
53.79999999999999	-3.099000000000061	0	1
51.761529301051503	14.99292784670113	0	1
54.985934247054857	12.550180675136071	0	1
33.31155017062207	8.6447594229179483	0	1
33.763490187487349	6.6646808332766581	0	1
53.140714049712741	8.9503246469981814	0	1
47.127519385624858	26.13504768615417	0	1
50.81464414969647	24.471042886230219	0	1
30.552720118769301	15.840534510998991	0	1
31.433937992917059	14.010666740289169	0	1
49.816730800675479	20.55084264289497	0	1
40.130338860819833	35.966647104168231	0	1
44.095295611196917	35.164824824832507	0	1
26.26184910311261	22.241999054386799	0	1
27.528156890687701	20.654099313494228	0	1
43.994728652740257	31.120855575831381	0	1
31.120855575831499	43.994728652740172	0	1
35.164824824832642	44.095295611196818	0	1
20.654099313494051	27.52815689068785	0	1
22.241999054386628	26.261849103112748	0	1
35.966647104168352	40.130338860819727	0	1
20.550842642895109	49.816730800675423	0	1
24.471042886230371	50.814644149696392	0	1
14.010666740288981	31.433937992917151	0	1
15.8405345109988	30.55272011876939	0	1
26.135047686154309	47.127519385624787	0	1
8.9503246469982791	53.14071404971272	0	1
12.550180675136181	54.985934247054843	0	1
6.6646808332764138	33.763490187487413	0	1
8.6447594229177032	33.311550170622141	0	1
14.99292784670123	51.761529301051489	0	1
1.400000000000005	57.5	0	1
1.400000000000005	58.099999999999987	0	1
2.7220000000000071	58.647999999999989	0	1
3.8849999999999989	72.66300000000011	0	1
-2.72199999999998	58.647999999999989	0	1
-3.8849999999999909	72.662999999999997	0	1
-1.400000000000005	58.099999999999987	0	1
-1.400000000000005	57.5	0	1
-3.303499999999985	65.655499999999989	0	1
3.3034999999999979	65.655499999999989	0	1
-8.6060393616314084	56.869553246935673	0	1
-8.7102282682315657	57.460437898742988	0	1
-7.5034716201109006	58.229675438269361	0	1
-8.7918194133597467	72.233708927362215	0	1
-12.86476502750935	57.284334759050601	0	1
-16.44377565426457	70.884462586890052	0	1
-11.46768997666576	56.974223001275568	0	1
-11.363501070065601	56.383338349468261	0	1
-14.65427034088696	64.084398672970309	0	1
-8.1476455167353183	65.231692182815721	0	1
-18.350588572125702	54.511153895845659	0	1
-18.5558006581211	55.0749694683172	0	1
-17.500954051984589	56.042071653984422	0	1
-21.201503842719841	69.609633160986789	0	1
-22.616640679543071	54.180113993719473	0	1
-28.502915506226302	66.952136647346236	0	1
-21.186939996321652	54.11731306700532	0	1
-20.981727910326249	53.553497494533772	0	1
-25.559778092884681	60.566125320532862	0	1
-19.351228947352201	62.825852407485542	0	1
-27.537564434701821	50.496460717605203	0	1
-27.837564434701811	51.016075959875863	0	1
-26.96667885089877	52.151657881149731	0	1
-32.966991306297473	64.870503915188763	0	1
-31.681321149101251	49.429657881149751	0	1
-39.696008693702503	60.985503915188687	0	1
-30.262435565298251	49.616075959875857	0	1
-29.96243556529825	49.09646071760519	0	1
-35.68866492140188	55.207580898169212	0	1
-29.966835078598098	58.511080898169197	0	1
-35.887825336609488	44.947458132902348	0	1
-36.273497902421411	45.407084798773717	0	1
-35.613034758726343	46.676642373608537	0	1
-43.730793421135822	58.160317233986611	0	1
-39.783380707066037	43.17730662647503	0	1
-49.6829587441702	53.165857506722119	0	1
-38.41842234315456	43.607279491651397	0	1
-38.032749777342637	43.147652825780028	0	1
-44.733169725618119	48.171582066598567	0	1
-39.671914089931043	52.418479803797517	0	1
-43.147652825780121	38.032749777342531	0	1
-43.607279491651497	38.418422343154447	0	1
-43.177306626475087	39.783380707065973	0	1
-53.165857506722141	49.68295874417035	0	1
-46.676642373608608	35.613034758726258	0	1
-58.160317233986461	43.730793421135822	0	1
-45.407084798773823	36.273497902421312	0	1
-44.94745813290244	35.887825336609382	0	1
-52.418479803797517	39.671914089931043	0	1
-48.171582066598582	44.733169725618112	0	1
-49.096460717605261	29.962435565298151	0	1
-49.616075959875907	30.262435565298158	0	1
-49.42965788114978	31.681321149101191	0	1
-60.985503915188723	39.696008693702673	0	1
-52.151657881149781	26.96667885089872	0	1
-64.870503915188621	32.96699130629753	0	1
-51.01607595987592	27.837564434701719	0	1
-50.496460717605267	27.537564434701721	0	1
-58.511080898169197	29.96683507859812	0	1
-55.207580898169198	35.688664921401902	0	1
-53.553497494533822	20.981727910326139	0	1
-54.117313067005362	21.186939996321541	0	1
-54.180113993719502	22.616640679542989	0	1
-66.952136647346322	28.502915506226419	0	1
-56.042071653984429	17.500954051984511	0	1
-69.609633160986647	21.201503842719891	0	1
-55.074969468317228	18.55580065812099	0	1
-54.511153895845702	18.350588572125581	0	1
-62.825852407485542	19.351228947352201	0	1
-60.566125320532848	25.559778092884681	0	1
-56.383338349468282	11.36350107006546	0	1
-56.974223001275597	11.46768997666563	0	1
-57.284334759050608	12.86476502750925	0	1
-70.884462586890152	16.44377565426467	0	1
-58.229675438269368	7.5034716201108056	0	1
-72.233708927362088	8.7918194133597982	0	1
-57.46043789874301	8.710228268231436	0	1
-56.869553246935702	8.6060393616312716	0	1
-65.231692182815721	8.1476455167353024	0	1
-64.084398672970323	14.65427034088694	0	1
-57.5	1.3999999999998789	0	1
-58.099999999999987	1.399999999999888	0	1
-58.647999999999989	2.7219999999998969	0	1
-72.66300000000011	3.8850000000000802	0	1
-58.647999999999989	-2.722000000000091	0	1
-72.662999999999997	-3.8849999999999101	0	1
-58.099999999999987	-1.4000000000001229	0	1
-57.5	-1.4000000000001309	0	1
-65.655499999999989	-3.3035000000000001	0	1
-65.655499999999989	3.3034999999999828	0	1
-56.869553246935638	-8.6060393616315203	0	1
-57.46043789874296	-8.7102282682316652	0	1
-58.229675438269332	-7.5034716201109957	0	1
-72.233708927362215	-8.7918194133596526	0	1
-57.284334759050573	-12.86476502750944	0	1
-70.884462586890066	-16.443775654264481	0	1
-56.974223001275561	-11.467689976665859	0	1
-56.383338349468232	-11.363501070065711	0	1
-64.084398672970309	-14.65427034088696	0	1
-65.231692182815721	-8.1476455167353183	0	1
-54.511153895845609	-18.350588572125819	0	1
-55.07496946831715	-18.55580065812121	0	1
-56.042071653984372	-17.500954051984699	0	1
-69.609633160986803	-21.20150384271976	0	1
-54.180113993719438	-22.61664067954317	0	1
-66.952136647346265	-28.50291550622623	0	1
-54.117313067005277	-21.186939996321762	0	1
-53.553497494533737	-20.98172791032637	0	1
-60.566125320532848	-25.559778092884692	0	1
-62.825852407485527	-19.351228947352212	0	1
-50.496460717605153	-27.53756443470191	0	1
-51.016075959875813	-27.8375644347019	0	1
-52.151657881149688	-26.966678850898859	0	1
-64.87050391518882	-32.966991306297409	0	1
-49.429657881149701	-31.681321149101329	0	1
-60.98550391518873	-39.696008693702431	0	1
-49.616075959875801	-30.262435565298329	0	1
-49.096460717605147	-29.96243556529835	0	1
-55.207580898169198	-35.68866492140188	0	1
-58.511080898169197	-29.966835078598109	0	1
-44.947458132902277	-35.887825336609573	0	1
-45.40708479877366	-36.273497902421482	0	1
-46.67664237360848	-35.6130347587264	0	1
-58.160317233986653	-43.730793421135758	0	1
-43.177306626474973	-39.783380707066108	0	1
-53.165857506722148	-49.682958744170143	0	1
-43.607279491651347	-38.418422343154631	0	1
-43.147652825779957	-38.032749777342708	0	1
-48.17158206659856	-44.733169725618119	0	1
-52.418479803797517	-39.67191408993105	0	1
-38.032749777342453	-43.147652825780192	0	1
-38.418422343154383	-43.60727949165156	0	1
-39.783380707065902	-43.177306626475151	0	1
-49.682958744170392	-53.165857506722098	0	1
-35.613034758726187	-46.676642373608658	0	1
-43.730793421135857	-58.160317233986419	0	1
-36.273497902421227	-45.40708479877388	0	1
-35.887825336609303	-44.947458132902511	0	1
-39.671914089931029	-52.418479803797538	0	1
-44.733169725618097	-48.171582066598582	0	1
-29.962435565298009	-49.096460717605332	0	1
-30.262435565298031	-49.616075959875978	0	1
-31.68132114910107	-49.429657881149851	0	1
-39.696008693702673	-60.985503915188708	0	1
-26.966678850898589	-52.151657881149838	0	1
-32.96699130629753	-64.870503915188607	0	1
-27.837564434701591	-51.016075959875991	0	1
-27.537564434701579	-50.496460717605338	0	1
-29.966835078598059	-58.511080898169212	0	1
-35.688664921401831	-55.207580898169233	0	1
-20.981727910326011	-53.553497494533872	0	1
-21.186939996321421	-54.117313067005412	0	1
-22.616640679542868	-54.180113993719537	0	1
-28.502915506226461	-66.952136647346293	0	1
-17.500954051984401	-56.042071653984479	0	1
-21.20150384271993	-69.609633160986633	0	1
-18.555800658120859	-55.074969468317292	0	1
-18.350588572125449	-54.511153895845752	0	1
-19.351228947352158	-62.825852407485549	0	1
-25.559778092884638	-60.566125320532862	0	1
-11.36350107006535	-56.38333834946831	0	1
-11.46768997666552	-56.974223001275618	0	1
-12.86476502750916	-57.284334759050623	0	1
-16.443775654264741	-70.884462586890137	0	1
-7.5034716201107079	-58.229675438269403	0	1
-8.7918194133598728	-72.233708927362073	0	1
-8.7102282682313312	-57.460437898743031	0	1
-8.6060393616311561	-56.869553246935702	0	1
-8.1476455167352881	-65.231692182815721	0	1
-14.65427034088693	-64.084398672970323	0	1
-1.3999999999997661	-57.5	0	1
-1.3999999999997821	-58.099999999999987	0	1
-2.7219999999997979	-58.647999999999989	0	1
-3.8850000000001539	-72.66300000000011	0	1
2.7220000000001892	-58.647999999999989	0	1
3.8849999999998359	-72.662999999999997	0	1
1.4000000000002291	-58.099999999999987	0	1
1.4000000000002439	-57.5	0	1
3.3035000000000121	-65.655499999999989	0	1
-3.3034999999999708	-65.655499999999989	0	1
8.6060393616316304	-56.869553246935617	0	1
8.7102282682317735	-57.460437898742953	0	1
7.5034716201110943	-58.229675438269318	0	1
8.7918194133595797	-72.23370892736223	0	1
12.86476502750954	-57.284334759050552	0	1
16.44377565426441	-70.884462586890081	0	1
11.467689976665961	-56.97422300127554	0	1
11.363501070065819	-56.383338349468218	0	1
14.654270340886971	-64.084398672970309	0	1
8.1476455167353308	-65.231692182815721	0	1
18.35058857212589	-54.511153895845581	0	1
18.555800658121282	-55.074969468317128	0	1
17.500954051984749	-56.042071653984351	0	1
21.20150384271966	-69.609633160986846	0	1
22.616640679543242	-54.180113993719409	0	1
28.502915506226131	-66.952136647346293	0	1
21.186939996321829	-54.117313067005249	0	1
20.981727910326448	-53.553497494533701	0	1
25.559778092884681	-60.566125320532848	0	1
19.35122894735219	-62.825852407485527	0	1
27.537564434702031	-50.496460717605082	0	1
27.83756443470201	-51.016075959875749	0	1
26.966678850898969	-52.151657881149632	0	1
32.966991306297381	-64.870503915188834	0	1
31.681321149101439	-49.429657881149637	0	1
39.69600869370241	-60.985503915188737	0	1
30.26243556529845	-49.616075959875737	0	1
29.96243556529846	-49.096460717605083	0	1
35.688664921401923	-55.207580898169191	0	1
29.966835078598152	-58.511080898169183	0	1
35.887825336609637	-44.947458132902213	0	1
36.273497902421553	-45.40708479877361	0	1
35.613034758726471	-46.676642373608431	0	1
43.730793421135722	-58.160317233986689	0	1
39.783380707066179	-43.177306626474909	0	1
49.682958744170087	-53.165857506722212	0	1
38.418422343154703	-43.607279491651298	0	1
38.032749777342787	-43.147652825779893	0	1
44.733169725618133	-48.171582066598553	0	1
39.671914089931057	-52.41847980379751	0	1
43.147652825780241	-38.032749777342389	0	1
43.60727949165161	-38.418422343154319	0	1
43.1773066264752	-39.783380707065838	0	1
53.165857506722062	-49.682958744170442	0	1
46.676642373608701	-35.613034758726151	0	1
58.160317233986369	-43.730793421135928	0	1
45.40708479877393	-36.27349790242117	0	1
44.947458132902561	-35.887825336609239	0	1
52.418479803797538	-39.671914089931029	0	1
48.171582066598582	-44.733169725618097	0	1
49.096460717605332	-29.962435565298001	0	1
49.616075959875992	-30.26243556529802	0	1
49.429657881149851	-31.681321149101059	0	1
60.985503915188659	-39.696008693702773	0	1
52.151657881149852	-26.966678850898589	0	1
64.870503915188564	-32.966991306297629	0	1
51.016075959875998	-27.83756443470158	0	1
50.496460717605352	-27.537564434701569	0	1
58.511080898169197	-29.966835078598109	0	1
55.207580898169198	-35.68866492140188	0	1
53.553497494533893	-20.981727910325962	0	1
54.117313067005419	-21.186939996321371	0	1
54.180113993719559	-22.616640679542829	0	1
66.952136647346293	-28.5029155062265	0	1
56.0420716539845	-17.500954051984351	0	1
69.609633160986618	-21.201503842719958	0	1
55.074969468317299	-18.55580065812082	0	1
54.511153895845759	-18.3505885721254	0	1
62.825852407485563	-19.351228947352151	0	1
60.566125320532869	-25.559778092884638	0	1
56.38333834946831	-11.363501070065301	0	1
56.974223001275632	-11.467689976665479	0	1
57.28433475905063	-12.86476502750911	0	1
70.884462586890137	-16.443775654264769	0	1
58.22967543826941	-7.5034716201106644	0	1
72.233708927362045	-8.7918194133599084	0	1
57.460437898743031	-8.7102282682312833	0	1
56.869553246935723	-8.6060393616311082	0	1
65.231692182815721	-8.1476455167352846	0	1
64.084398672970323	-14.654270340886921	0	1
57.5	-1.3999999999996979	0	1
58.099999999999987	-1.399999999999717	0	1
58.647999999999989	-2.7219999999997371	0	1
72.66300000000011	-3.8850000000001752	0	1
58.647999999999989	2.72200000000025	0	1
72.662999999999997	3.884999999999815	0	1
58.099999999999987	1.400000000000293	0	1
57.5	1.4000000000003121	0	1
65.655499999999989	3.3035000000000321	0	1
65.655499999999989	-3.3034999999999508	0	1
56.86955324693561	8.6060393616316961	0	1
57.460437898742939	8.7102282682318322	0	1
58.229675438269311	7.5034716201111529	0	1
72.233708927362244	8.7918194133595584	0	1
57.284334759050537	12.8647650275096	0	1
70.884462586890081	16.443775654264378	0	1
56.974223001275533	11.46768997666603	0	1
56.383338349468197	11.36350107006589	0	1
64.084398672970309	14.65427034088699	0	1
65.231692182815706	8.1476455167353503	0	1
54.511153895845538	18.350588572126011	0	1
55.074969468317093	18.555800658121392	0	1
56.042071653984308	17.500954051984859	0	1
69.609633160986846	21.201503842719699	0	1
54.180113993719381	22.616640679543341	0	1
66.952136647346293	28.502915506226159	0	1
54.117313067005213	21.186939996321939	0	1
53.553497494533673	20.981727910326558	0	1
60.566125320532819	25.559778092884748	0	1
62.825852407485513	19.351228947352269	0	1
50.496460717605054	27.537564434702091	0	1
51.016075959875707	27.83756443470207	0	1
52.151657881149603	26.966678850899029	0	1
64.870503915188834	32.966991306297359	0	1
49.429657881149602	31.6813211491015	0	1
60.985503915188751	39.696008693702382	0	1
49.616075959875708	30.26243556529851	0	1
49.096460717605041	29.962435565298531	0	1
55.207580898169169	35.688664921401937	0	1
58.511080898169169	29.966835078598159	0	1
44.947458132902149	35.887825336609708	0	1
45.407084798773553	36.273497902421617	0	1
46.676642373608367	35.613034758726542	0	1
58.160317233986717	43.730793421135687	0	1
43.177306626474873	39.78338070706625	0	1
53.165857506722219	49.682958744170058	0	1
43.607279491651241	38.418422343154759	0	1
43.147652825779844	38.032749777342858	0	1
48.171582066598539	44.73316972561814	0	1
52.418479803797489	39.671914089931079	0	1
38.03274977734231	43.147652825780312	0	1
38.418422343154241	43.607279491651681	0	1
39.783380707065767	43.177306626475257	0	1
49.682958744170477	53.165857506722027	0	1
35.613034758726073	46.676642373608757	0	1
43.730793421135949	58.160317233986341	0	1
36.273497902421092	45.407084798773987	0	1
35.887825336609161	44.947458132902618	0	1
39.671914089931008	52.418479803797553	0	1
44.733169725618083	48.171582066598589	0	1
29.962435565297842	49.096460717605439	0	1
30.26243556529786	49.616075959876078	0	1
31.68132114910091	49.429657881149943	0	1
39.696008693702773	60.985503915188659	0	1
26.96667885089844	52.151657881149937	0	1
32.966991306297622	64.870503915188564	0	1
27.83756443470142	51.01607595987609	0	1
27.537564434701402	50.496460717605437	0	1
29.966835078598031	58.51108089816924	0	1
35.688664921401802	55.207580898169262	0	1
20.981727910325819	53.553497494533943	0	1
21.18693999632125	54.117313067005483	0	1
22.616640679542709	54.180113993719623	0	1
28.502915506226572	66.952136647346265	0	1
17.50095405198423	56.04207165398455	0	1
21.20150384272003	69.609633160986604	0	1
18.555800658120688	55.074969468317349	0	1
18.350588572125261	54.511153895845823	0	1
19.351228947352119	62.82585240748557	0	1
25.55977809288461	60.566125320532883	0	1
11.36350107006521	56.383338349468318	0	1
11.46768997666539	56.974223001275639	0	1
12.86476502750903	57.284334759050637	0	1
16.443775654264901	70.884462586890095	0	1
7.5034716201105889	58.22967543826941	0	1
8.7918194133600398	72.233708927362045	0	1
8.7102282682312016	57.460437898743038	0	1
8.6060393616310158	56.86955324693573	0	1
8.147645516735313	65.231692182815721	0	1
14.654270340886949	64.084398672970309	0	1
91	0	0	1
-91	0	0	1
57.5	0	0	1
-57.5	0	0	1
0	57.5	0	0
-19.666158241226182	54.032325695189641	0	0
-28.750000000000181	49.796460717605115	0	0
-36.960287556976013	44.047555479341227	0	0
-44.047555479341234	36.960287556976013	0	0
-49.796460717605179	28.750000000000082	0	0
56.626445798201935	9.9847702158486094	0	0
54.032325695189783	19.666158241225794	0	0
44.047555479341369	36.960287556975842	0	0
36.960287556975842	44.047555479341376	0	0
9.9847702158486076	56.626445798201935	0	0
56.549137774908978	10.423205802860517	0	0
53.811507269902108	20.272851878503211	0	0
50.188487586234828	28.0709895456014	0	0
49.392612813331048	29.449485088733084	0	0
43.438548972774882	37.686073249089702	0	0
36.140546118927915	44.735400217668115	0	0
29.74961524529953	49.219332586645486	0	0
27.730043242508273	50.385333026104838	0	0
20.840102005927378	53.605045108136004	0	0
18.471555106810769	54.467125677877966	0	0
8.6542868076673134	56.861045920449257	0	0
56.700253981800664	9.5661832060661336	0	0
54.245538878187702	19.080359835408967	0	0
44.640923253047397	36.253139380932048	0	0
37.761431131712037	43.37531620126019	0	0
11.295740526461012	56.395286361533209	0	0
-8.6717254236099031	56.857971021952373	0	0
-11.278443818151644	56.398336237885609	0	0
-20.823398709814747	53.611124610735125	0	0
-29.734329054879588	49.22815807279931	0	0
-37.748290140013125	43.386342802548043	0	0
-44.630491476391114	36.265571488239331	0	0
-50.181098582298226	28.08378767583692	0	0
-53.816086768400531	20.260269809786376	0	0
-54.241226078800366	19.092209154340306	0	0
-56.550882169753393	10.41331284809324	0	0
-56.698651494589221	9.5752713626546377	0	0
-18.488525102035268	54.460949104740607	0	0
-27.74568875566937	50.376300084869683	0	0
-36.154095717372485	44.724030754610681	0	0
-43.449389356175395	37.673154183227055	0	0
-49.400361140008812	29.436064593253555	0	0
-11.342267707855951	56.387082364116978	0	0
-20.880765750275227	53.590244715579566	0	0
-29.783366280517143	49.199846417377152	0	0
-37.787750062539139	43.353231996110182	0	0
-44.65984141470534	36.23059359381093	0	0
-50.200574326537819	28.050054697298734	0	0
-54.251862287228455	19.062986411855519	0	0
-56.70234043068951	9.5543503664153366	0	0
-53.804682884637096	20.291601722920493	0	0
-56.546836158620039	10.436258917475797	0	0
-18.42916341972694	54.482554990156807	0	0
-27.694668408065521	50.405756696292912	0	0
-36.112806792751371	44.758676276031963	0	0
-43.418488546494096	37.709980334178816	0	0
-49.379703119317547	29.471845334674633	0	0
-20.899911319274487	53.583276298345744	0	0
-18.40934835142599	54.489767085208307	0	0
-20.956709204990826	53.562603558575745	0	0
-29.848734928283676	49.162105810992585	0	0
-37.840727959948936	43.308778261933071	0	0
-44.699539356295354	36.183283429302435	0	0
-50.227123757357617	28.004069734206809	0	0
-54.266483074312369	19.022816129487815	0	0
-56.707456039069186	9.5253383096153996	0	0
-57.5	0.021131078965516817	0	0
-53.788962267810547	20.334793762671342	0	0
-56.54119949880684	10.468226003797747	0	0
-27.626633577732825	50.44503662389976	0	0
-36.057328930688598	44.80522772962734	0	0